.model IF4500 NJF(Beta=70m Betatce=-.5 RD=2 RS=2 Lambda=2.0E-2 Vto=-0.68
+ Vtotc=-2.5m Cgd=25p M=.8654 Pb=1 Fc=.5 Cgs=45p Is=313.8f
+ Isr=3.099p N=1 Nr=2 Xti=3 Alpha=10U Vk=100 Kf=308.2E-21 Af=1)
.model IF4500_Off_min NJF(Beta=70m Betatce=-.5 RD=2 RS=2 Lambda=2.0E-2 Vto=-0.8
+ Vtotc=-2.5m Cgd=25p M=.8654 Pb=1 Fc=.5 Cgs=45p Is=313.8f
+ Isr=3.099p N=1 Nr=2 Xti=3 Alpha=10U Vk=100 Kf=308.2E-21 Af=1)
.model IF4500_Off_max NJF(Beta=70m Betatce=-.5 RD=2 RS=2 Lambda=2.0E-2 Vto=-0.4
+ Vtotc=-2.5m Cgd=25p M=.8654 Pb=1 Fc=.5 Cgs=45p Is=313.8f
+ Isr=3.099p N=1 Nr=2 Xti=3 Alpha=10U Vk=100 Kf=308.2E-21 Af=1)
.model IF4500_Off_mid NJF(Beta=70m Betatce=-.5 RD=2 RS=2 Lambda=2.0E-2 Vto=-0.7
+ Vtotc=-2.5m Cgd=25p M=.8654 Pb=1 Fc=.5 Cgs=45p Is=313.8f
+ Isr=3.099p N=1 Nr=2 Xti=3 Alpha=10U Vk=100 Kf=308.2E-21 Af=1)
