.model LSK389A NJF(Beta=37.86m Betatce=-.5 Rd=11 Rs=7 Lambda=4.78m Vto=-0.40 Vtotc=-2.5m Is=35.58f N=1 Cgd=39.9p MJ=0.79 Pb=0.98 Fc=0.5 Cgs=40.7p Kf=0 Af=1 Mfg=Linear_Systems)