*
******************************************
*
*BAV756S
*
*NXP Semiconductors
*
*High-speed switching diode
*
*
*
*
* 
*
*
*
*
*
*
*VRRM = 90V
*IFRM = 500mA
*trr  = 4ns
*
*
*Package pinning does not match Spice model pinning.
*Package: SOT363
*
*Package Pin 1: Anode              D1        
*Package Pin 2: Cathode            D2
*Package Pin 3: Common anode       D2/D3  
*Package Pin 4: Cathode            D3 
*Package Pin 5: Anode              D4        
*Package Pin 6: Common cathode     D1/D4        
*Simulator: SPICE3
*
******************************************
*
.SUBCKT BAV756S 1 2  
*
*The resistor R1 and the diode D12 do not reflect 
*physical devices.  Instead they
*improve modeling in the reverse 
*mode of operation.
*  
 R1 1 2 1E+010   
 D11 1 2  
 + DIODE1
 D12 1 2  
 + DIODE2
 .MODEL DIODE1 D 
 + IS = 2.6E-009 
 + N = 1.85      
 + BV = 132      
 + IBV = 1E-007  
 + RS = 1.1      
 + CJO = 1.092E-012      
 + VJ = 0.94     
 + M = 0.08      
 + FC = 0.5      
 + TT = 0
 + EG = 1.1      
 + XTI = 3       
 .MODEL DIODE2 D 
 + IS = 1E-015   
 + N = 1.1       
 + RS = 280      
 .ENDS

