Version 4
SHEET 1 3092 2136
WIRE 272 -576 160 -576
WIRE 384 -576 272 -576
WIRE 160 -528 160 -576
WIRE 384 -528 384 -576
WIRE 704 -448 704 -464
WIRE 704 -432 704 -448
WIRE 160 -416 160 -448
WIRE 160 -416 0 -416
WIRE 384 -416 384 -448
WIRE 656 -416 384 -416
WIRE 672 -416 656 -416
WIRE 752 -400 736 -400
WIRE 864 -400 752 -400
WIRE 160 -384 160 -416
WIRE 384 -384 384 -416
WIRE 672 -384 624 -384
WIRE 704 -352 704 -368
WIRE 704 -336 704 -352
WIRE 64 -320 32 -320
WIRE 112 -320 64 -320
WIRE 496 -320 432 -320
WIRE 656 -288 656 -416
WIRE 752 -288 752 -400
WIRE 752 -288 736 -288
WIRE 976 -256 976 -272
WIRE 864 -240 864 -400
WIRE 912 -240 864 -240
WIRE 160 -224 160 -288
WIRE 384 -224 384 -288
WIRE 656 -224 656 -288
WIRE 752 -224 752 -288
WIRE 752 -224 720 -224
WIRE 864 -224 832 -224
WIRE 864 -208 864 -224
WIRE 912 -208 864 -208
WIRE 1392 -208 1392 -224
WIRE -1696 -192 -1760 -192
WIRE -1568 -192 -1616 -192
WIRE -1344 -192 -1392 -192
WIRE -1184 -192 -1264 -192
WIRE 1248 -192 1040 -192
WIRE 1392 -192 1392 -208
WIRE 912 -176 864 -176
WIRE 1328 -176 1328 -192
WIRE 1360 -176 1328 -176
WIRE 624 -160 624 -384
WIRE 624 -160 576 -160
WIRE 1456 -160 1424 -160
WIRE 1552 -160 1536 -160
WIRE 1616 -160 1552 -160
WIRE 1648 -160 1616 -160
WIRE -1568 -144 -1568 -192
WIRE -1392 -144 -1392 -192
WIRE 864 -144 864 -176
WIRE 864 -144 832 -144
WIRE 912 -144 896 -144
WIRE 1248 -144 1200 -144
WIRE 1344 -144 1328 -144
WIRE 1360 -144 1344 -144
WIRE -1616 -128 -1744 -128
WIRE -1440 -128 -1616 -128
WIRE 752 -128 720 -128
WIRE 896 -128 896 -144
WIRE 896 -128 752 -128
WIRE 1008 -112 1008 -128
WIRE 1392 -112 1392 -128
WIRE -1744 -96 -1744 -128
WIRE 976 -96 976 -128
WIRE 1392 -96 1392 -112
WIRE 160 -80 160 -144
WIRE 272 -80 160 -80
WIRE 384 -80 384 -144
WIRE 384 -80 272 -80
WIRE -1616 -64 -1616 -80
WIRE -1568 -64 -1616 -64
WIRE -1440 -64 -1440 -80
WIRE -1392 -64 -1440 -64
WIRE 656 -64 656 -128
WIRE 752 -64 752 -128
WIRE 752 -64 736 -64
WIRE -1568 -48 -1568 -64
WIRE -1392 -48 -1392 -64
WIRE 1344 -32 1344 -144
WIRE 1360 -32 1344 -32
WIRE 1456 -32 1456 -160
WIRE 1456 -32 1440 -32
WIRE 704 0 704 -16
WIRE 704 16 704 0
WIRE 624 32 624 -160
WIRE 672 32 624 32
WIRE -1744 48 -1744 -16
WIRE 752 48 752 -64
WIRE 752 48 736 48
WIRE 816 48 752 48
WIRE 0 64 0 -416
WIRE 656 64 656 -64
WIRE 656 64 0 64
WIRE 672 64 656 64
WIRE 272 96 272 -80
WIRE 704 96 704 80
WIRE 128 112 128 80
WIRE 704 112 704 96
WIRE 96 128 -16 128
WIRE 208 144 160 144
WIRE 96 160 32 160
WIRE 128 192 128 176
WIRE 32 224 32 160
WIRE 272 224 272 192
WIRE 272 224 32 224
WIRE 272 320 272 304
WIRE 272 336 272 320
WIRE -848 1216 -848 1184
WIRE -752 1216 -752 1184
WIRE -848 1232 -848 1216
WIRE -752 1232 -752 1216
WIRE -848 1328 -848 1312
WIRE -752 1328 -752 1312
FLAG 272 -576 VCC
FLAG 64 -320 In-
FLAG 496 -320 In+
FLAG -1568 -48 0
FLAG -1392 -48 0
FLAG -1760 -192 In+
FLAG -1184 -192 In-
FLAG -1744 128 0
FLAG 128 80 VEE
FLAG 128 192 VCC
FLAG 272 320 VEE
FLAG -16 208 0
FLAG -848 1328 0
FLAG -752 1328 0
FLAG -848 1216 VCC
FLAG -752 1216 VEE
FLAG 704 -448 VCC
FLAG 704 -352 VEE
FLAG 704 96 VCC
FLAG 704 0 VEE
FLAG 576 -80 0
FLAG 976 -272 VCC
FLAG 976 -96 VEE
FLAG 1008 -112 0
FLAG 1392 -112 VCC
FLAG 1200 -144 0
FLAG 1392 -208 VEE
FLAG 1552 -224 0
FLAG 1616 -160 Out
FLAG 1280 -32 0
DATAFLAG 288 -576 ""
DATAFLAG 208 -80 ""
DATAFLAG 160 -256 ""
DATAFLAG 384 -256 ""
DATAFLAG 80 -320 ""
DATAFLAG 448 -320 ""
DATAFLAG 384 -432 ""
DATAFLAG 160 -432 ""
DATAFLAG 160 224 ""
DATAFLAG 192 144 ""
DATAFLAG 48 128 ""
DATAFLAG -1200 -192 ""
DATAFLAG -1712 -192 ""
DATAFLAG 1344 -112 ""
DATAFLAG 1456 -112 ""
SYMBOL res 144 -544 R0
SYMATTR InstName R1
SYMATTR Value 680
SYMBOL res 368 -544 R0
SYMATTR InstName R2
SYMATTR Value 680
SYMBOL res 144 -240 R0
SYMATTR InstName R3
SYMATTR Value 3.3
SYMBOL res 368 -240 R0
SYMATTR InstName R4
SYMATTR Value 3.3
SYMBOL voltage -1744 -112 R0
WINDOW 123 24 108 Left 2
WINDOW 39 0 0 Left 0
SYMATTR Value2 AC 1
SYMATTR InstName V1
SYMATTR Value PULSE(0 1m 1m 100n 100n 100m 100)
SYMBOL e -1568 -160 R0
SYMATTR InstName E1
SYMATTR Value 0.5
SYMBOL e -1392 -160 R0
SYMATTR InstName E2
SYMATTR Value -0.5
SYMBOL voltage -1744 32 R0
WINDOW 123 0 0 Left 0
WINDOW 39 0 0 Left 0
SYMATTR InstName V2
SYMATTR Value 0
SYMBOL res 256 208 R0
SYMATTR InstName R5
SYMATTR Value 470
SYMBOL npn 208 96 R0
SYMATTR InstName Q1
SYMATTR Value BC850B
SYMBOL voltage -16 112 R0
WINDOW 123 0 0 Left 0
WINDOW 39 0 0 Left 0
SYMATTR InstName V3
SYMATTR Value 0
SYMBOL AutoGenerated\\JFEx140 112 -384 R0
SYMATTR InstName U1
SYMBOL AutoGenerated\\JFEx140 432 -384 M0
SYMATTR InstName U2
SYMBOL AutoGenerated\\AD8012an 128 144 M180
SYMATTR InstName U3
SYMBOL voltage -1712 -192 R270
WINDOW 123 24 108 Left 2
WINDOW 39 0 0 Left 0
SYMATTR InstName V6
SYMATTR Value 0
SYMBOL voltage -1248 -192 R90
WINDOW 123 24 108 Left 2
WINDOW 39 0 0 Left 0
SYMATTR InstName V7
SYMATTR Value 0
SYMBOL voltage -848 1216 R0
WINDOW 123 24 108 Left 2
WINDOW 39 0 0 Left 0
SYMATTR Value2 AC 0
SYMATTR InstName V8
SYMATTR Value 5
SYMBOL voltage -752 1216 R0
WINDOW 123 24 108 Left 2
WINDOW 39 0 0 Left 0
SYMATTR Value2 AC 0
SYMATTR InstName V9
SYMATTR Value -5
SYMBOL AutoGenerated\\AD8012an 704 -400 R0
SYMATTR InstName U6
SYMATTR Value OPAx828
SYMBOL res 752 -304 R90
WINDOW 0 0 56 VBottom 2
WINDOW 3 32 56 VTop 2
SYMATTR InstName R16
SYMATTR Value 4.7k
SYMBOL cap 720 -240 R90
WINDOW 0 0 32 VBottom 2
WINDOW 3 32 32 VTop 2
SYMATTR InstName C3
SYMATTR Value 33p
SYMBOL AutoGenerated\\AD8012an 704 48 M180
SYMATTR InstName U7
SYMATTR Value OPAx828
SYMBOL res 752 -48 M270
WINDOW 0 32 56 VTop 2
WINDOW 3 0 56 VBottom 2
SYMATTR InstName R17
SYMATTR Value 4.7k
SYMBOL cap 720 -112 M270
WINDOW 0 32 32 VTop 2
WINDOW 3 0 32 VBottom 2
SYMATTR InstName C4
SYMATTR Value 33p
SYMBOL voltage 576 -176 R0
WINDOW 123 0 0 Left 0
WINDOW 39 0 0 Left 0
SYMATTR InstName V10
SYMATTR Value 1.5
SYMBOL AutoGenerated\\INA828 976 -192 R0
WINDOW 0 35 -70 Bottom 2
SYMATTR InstName U8
SYMBOL res 848 -128 R180
WINDOW 0 36 76 Left 2
WINDOW 3 36 40 Left 2
SYMATTR InstName R14
SYMATTR Value 12.4k
SYMBOL res 1344 -160 R90
WINDOW 0 0 56 VBottom 2
WINDOW 3 32 56 VTop 2
SYMATTR InstName R6
SYMATTR Value 470
SYMBOL res 1456 -48 R90
WINDOW 0 0 56 VBottom 2
WINDOW 3 32 56 VTop 2
SYMATTR InstName R7
SYMATTR Value 47
SYMBOL res 1344 -208 R90
WINDOW 0 0 56 VBottom 2
WINDOW 3 32 56 VTop 2
SYMATTR InstName R8
SYMATTR Value 470
SYMBOL res 1552 -144 M270
WINDOW 0 32 56 VTop 2
WINDOW 3 0 56 VBottom 2
SYMATTR InstName R9
SYMATTR Value 5.6
SYMBOL cap 1568 -224 M0
SYMATTR InstName C5
SYMATTR Value 100n
SYMBOL AutoGenerated\\AD8012an 1392 -160 M180
SYMATTR InstName U5
SYMATTR Value OPAx828
SYMBOL cap 1344 -16 M270
WINDOW 0 32 32 VTop 2
WINDOW 3 0 32 VBottom 2
SYMATTR InstName C1
SYMATTR Value 50p
TEXT -1640 152 Left 2 ;Bolometer model
TEXT -896 1624 Left 2 !;dc dec V1 1e-9 1 100
TEXT -896 1416 Left 4 ;Library Files
TEXT -896 1608 Left 4 ;Simulation command
TEXT -904 1136 Left 4 ;Power supplies
TEXT -896 1712 Left 4 ;Simulation Parameters
TEXT -896 1744 Left 2 ;gmin = 1.10^(-18)
TEXT -896 1776 Left 2 ;Voltage rolerance = 1.10^(-9)
TEXT -896 1808 Left 2 ;Current tolerance = 1.10^(-12)
TEXT -896 1840 Left 2 ;Absolute tolerance = 1.10^(-12)
TEXT -896 1872 Left 2 ;Relative tolerance = 0.001
TEXT -896 1656 Left 2 !.noise V(Out) V6 dec 10 1 10Mega
TEXT -896 1480 Left 2 !.lib C:\\Users\\dbaudin\\Documents_Local\\Modele_Spice\\aop\\OPAx828.lib
TEXT -896 1640 Left 2 !;tran 10m
TEXT -896 1496 Left 2 !.lib C:\\Users\\dbaudin\\Documents_Local\\Modele_Spice\\BJT\\BC850B.mod
TEXT -896 1672 Left 2 !;ac dec 100 0.01 10e9
TEXT -896 1688 Left 2 !.op
TEXT -896 1464 Left 2 !.lib C:\\Users\\dbaudin\\Documents_Local\\Modele_Spice\\aop\\AD8012.cir
TEXT 1360 -64 Left 2 ;x9118TV14IZ
LINE Normal -48 -624 -48 -624 2
RECTANGLE Normal -1072 176 -1904 -240 2
